Program Version,EnergyPlus, Version 23.2.0-7636e6b3e9, YMD=2026.07.22 10:24,
   ** Warning ** RunPeriod: object=RUN PERIOD 1, start weekday (TUESDAY) does not match the start year (2023), corrected to SATURDAY.
   ** Warning ** Weather file location will be used rather than entered (IDF) Location object.
   **   ~~~   ** ..Location object=DENVER STAPLETON INTL ARPT CO USA WMO=724690
   **   ~~~   ** ..Weather File Location=Edinburgh.AP SCT GBR SRC-TMYx WMO#=031600
   **   ~~~   ** ..due to location differences, Latitude difference=[16.18] degrees, Longitude difference=[101.50] degrees.
   **   ~~~   ** ..Time Zone difference=[7.0] hour(s), Elevation difference=[97.45] percent, [1569.90] meters.
   ** Warning ** SetUpDesignDay: Entered DesignDay Barometric Pressure=83411 differs by more than 10% from Standard Barometric Pressure=100832.
   **   ~~~   ** ...occurs in DesignDay=DENVER STAPLETON INTL ARPT ANN HTG 99% CONDNS DB, Standard Pressure (based on elevation) will be used.
   ** Warning ** GetSurfaceData: Window dimensions differ from Window 5/6 data file dimensions, 1 times.
   **   ~~~   ** This will affect the frame heat transfer calculation if the frame in the Data File entry
   **   ~~~   ** is not uniform, i.e., has sections with different geometry and/or thermal properties.
   **   ~~~   ** For explicit details on each window, use Output:Diagnostics,DisplayExtraWarnings;
   ** Warning ** SetUpDesignDay: Entered DesignDay Barometric Pressure=83411 differs by more than 10% from Standard Barometric Pressure=100832.
   **   ~~~   ** ...occurs in DesignDay=DENVER STAPLETON INTL ARPT ANN CLG 1% CONDNS DB=>MWB, Standard Pressure (based on elevation) will be used.
   ************* Testing Individual Branch Integrity
   ************* All Branches passed integrity testing
   ************* Testing Individual Supply Air Path Integrity
   ************* All Supply Air Paths passed integrity testing
   ************* Testing Individual Return Air Path Integrity
   ************* All Return Air Paths passed integrity testing
   ************* No node connection errors were found.
   ************* Beginning Simulation
   ************* Simulation Error Summary *************
   ************* EnergyPlus Warmup Error Summary. During Warmup: 0 Warning; 0 Severe Errors.
   ************* EnergyPlus Sizing Error Summary. During Sizing: 0 Warning; 0 Severe Errors.
   ************* EnergyPlus Completed Successfully-- 4 Warning; 0 Severe Errors; Elapsed Time=00hr 00min  0.51sec
