Program Version,EnergyPlus, Version 23.2.0-7636e6b3e9, YMD=2026.07.21 21:07,
   ** Severe  ** <root>[BuildingSurface:Detailed][Zn001:Flr001][sun_exposure] - "NoWind" - Failed to match against any enum values.
   ** Severe  ** <root>[BuildingSurface:Detailed][Zn001:Flr001][vertices][3] - Missing required property 'vertex_z_coordinate'.
   ** Warning ** Version: in IDF="8.1" not the same as expected="23.2"
   **  Fatal  ** Errors occurred on processing input file. Preceding condition(s) cause termination.
   ...Summary of Errors that led to program termination:
   ..... Reference severe error count=2
   ..... Last severe error=<root>[BuildingSurface:Detailed][Zn001:Flr001][vertices][3] - Missing required property 'vertex_z_coordinate'.
   ************* Warning:  Node connection errors not checked - most system input has not been read (see previous warning).
   ************* Fatal error -- final processing.  Program exited before simulations began.  See previous error messages.
   ************* EnergyPlus Warmup Error Summary. During Warmup: 0 Warning; 0 Severe Errors.
   ************* EnergyPlus Sizing Error Summary. During Sizing: 0 Warning; 0 Severe Errors.
   ************* EnergyPlus Terminated--Fatal Error Detected. 1 Warning; 2 Severe Errors; Elapsed Time=00hr 00min  0.04sec
